1
9
.tran 1m 50m{return}{return}
2
1
Vin
V
1
Vout
V
