1
9
.tran 1m 50m{return}{return}
2
2
R2
I
1
Vin
V
